/*---------------------------------------------------------------------------*\
| =========                 |                                                 |
| \\      /  F ield         | OpenFOAM: The Open Source CFD Toolbox           |
|  \\    /   O peration     | Version:  5.x                                   |
|   \\  /    A nd           | Web:      www.OpenFOAM.org                      |
|    \\/     M anipulation  |                                                 |
\*---------------------------------------------------------------------------*/
Build  : 5.x-197d9d3bf20a
Exec   : blockMesh
Date   : Apr 14 2018
Time   : 06:22:55
Host   : "ip-172-31-29-165"
PID    : 33099
I/O    : uncollated
Case   : /home/ubuntu/GA_IWO/2018_04_06_Final/Results/Generation_44/Specie_0/CFD
nProcs : 1
sigFpe : Enabling floating point exception trapping (FOAM_SIGFPE).
fileModificationChecking : Monitoring run-time modified files using timeStampMaster (fileModificationSkew 10)
allowSystemOperations : Allowing user-supplied system call operations

// * * * * * * * * * * * * * * * * * * * * * * * * * * * * * * * * * * * * * //
Create time

Creating block mesh from
    "/home/ubuntu/GA_IWO/2018_04_06_Final/Results/Generation_44/Specie_0/CFD/system/blockMeshDict"
Using #calcEntry at line 12 in file "/home/ubuntu/GA_IWO/2018_04_06_Final/Results/Generation_44/Specie_0/CFD/system/blockMeshDict"
Using #codeStream with "/home/ubuntu/GA_IWO/2018_04_06_Final/Results/Generation_44/Specie_0/CFD/dynamicCode/platforms/linux64GccDPInt32Opt/lib/libcodeStream_a03284afd851dba3ddc7440aa643f903d38eb315.so"
Using #calcEntry at line 13 in file "/home/ubuntu/GA_IWO/2018_04_06_Final/Results/Generation_44/Specie_0/CFD/system/blockMeshDict"
Using #codeStream with "/home/ubuntu/GA_IWO/2018_04_06_Final/Results/Generation_44/Specie_0/CFD/dynamicCode/platforms/linux64GccDPInt32Opt/lib/libcodeStream_14cc4b2ee8e2f247ed9db5415dd8d81b4d47467f.so"
Using #calcEntry at line 14 in file "/home/ubuntu/GA_IWO/2018_04_06_Final/Results/Generation_44/Specie_0/CFD/system/blockMeshDict"
Using #codeStream with "/home/ubuntu/GA_IWO/2018_04_06_Final/Results/Generation_44/Specie_0/CFD/dynamicCode/platforms/linux64GccDPInt32Opt/lib/libcodeStream_8327ce14a8f9fd2005514c3f4b021003cb6f6651.so"
Using #calcEntry at line 15 in file "/home/ubuntu/GA_IWO/2018_04_06_Final/Results/Generation_44/Specie_0/CFD/system/blockMeshDict"
Using #codeStream with "/home/ubuntu/GA_IWO/2018_04_06_Final/Results/Generation_44/Specie_0/CFD/dynamicCode/platforms/linux64GccDPInt32Opt/lib/libcodeStream_af92dd1791e0f24e3f7bdfad897ae2577783eb56.so"
Using #calcEntry at line 16 in file "/home/ubuntu/GA_IWO/2018_04_06_Final/Results/Generation_44/Specie_0/CFD/system/blockMeshDict"
Using #codeStream with "/home/ubuntu/GA_IWO/2018_04_06_Final/Results/Generation_44/Specie_0/CFD/dynamicCode/platforms/linux64GccDPInt32Opt/lib/libcodeStream_1e536a3c807aebd4b3c0a6200442f719db9375b4.so"
Using #calcEntry at line 17 in file "/home/ubuntu/GA_IWO/2018_04_06_Final/Results/Generation_44/Specie_0/CFD/system/blockMeshDict"
Using #codeStream with "/home/ubuntu/GA_IWO/2018_04_06_Final/Results/Generation_44/Specie_0/CFD/dynamicCode/platforms/linux64GccDPInt32Opt/lib/libcodeStream_0811e771fc0b86f8b48a8265f3e379bc46167b7e.so"
Using #calcEntry at line 26 in file "/home/ubuntu/GA_IWO/2018_04_06_Final/Results/Generation_44/Specie_0/CFD/system/blockMeshDict"
Using #codeStream with "/home/ubuntu/GA_IWO/2018_04_06_Final/Results/Generation_44/Specie_0/CFD/dynamicCode/platforms/linux64GccDPInt32Opt/lib/libcodeStream_3e018ec8ffd84fa0d0cac9f8aab4ff2abafa30c9.so"
Using #calcEntry at line 27 in file "/home/ubuntu/GA_IWO/2018_04_06_Final/Results/Generation_44/Specie_0/CFD/system/blockMeshDict"
Using #codeStream with "/home/ubuntu/GA_IWO/2018_04_06_Final/Results/Generation_44/Specie_0/CFD/dynamicCode/platforms/linux64GccDPInt32Opt/lib/libcodeStream_8f4d7e9362a8e790f89c236c98fb7ff3bcf7d36f.so"
Creating block edges
No non-planar block faces defined
Creating topology blocks
Creating topology patches

Creating block mesh topology

Check topology

	Basic statistics
		Number of internal faces : 0
		Number of boundary faces : 6
		Number of defined boundary faces : 6
		Number of undefined boundary faces : 0
	Checking patch -> block consistency

Creating block offsets
Creating merge list .

Creating polyMesh from blockMesh
Creating patches
Creating cells
Creating points with scale 1
    Block 0 cell size :
        i : 0.1 .. 0.1
        j : 0.1 .. 0.1
        k : 0.02 .. 0.02


Writing polyMesh
----------------
Mesh Information
----------------
  boundingBox: (-1.2 -1.2 -0.01) (2.8 1.2 0.01)
  nPoints: 2050
  nCells: 960
  nFaces: 3904
  nInternalFaces: 1856
----------------
Patches
----------------
  patch 0 (start: 1856 size: 24) name: inlet
  patch 1 (start: 1880 size: 24) name: outlet
  patch 2 (start: 1904 size: 40) name: top
  patch 3 (start: 1944 size: 40) name: bottom
  patch 4 (start: 1984 size: 960) name: front
  patch 5 (start: 2944 size: 960) name: back

End

/*---------------------------------------------------------------------------*\
| =========                 |                                                 |
| \\      /  F ield         | OpenFOAM: The Open Source CFD Toolbox           |
|  \\    /   O peration     | Version:  5.x                                   |
|   \\  /    A nd           | Web:      www.OpenFOAM.org                      |
|    \\/     M anipulation  |                                                 |
\*---------------------------------------------------------------------------*/
Build  : 5.x-197d9d3bf20a
Exec   : snappyHexMesh -overwrite
Date   : Apr 14 2018
Time   : 06:22:55
Host   : "ip-172-31-29-165"
PID    : 33108
I/O    : uncollated
Case   : /home/ubuntu/GA_IWO/2018_04_06_Final/Results/Generation_44/Specie_0/CFD
nProcs : 1
sigFpe : Enabling floating point exception trapping (FOAM_SIGFPE).
fileModificationChecking : Monitoring run-time modified files using timeStampMaster (fileModificationSkew 10)
allowSystemOperations : Allowing user-supplied system call operations

// * * * * * * * * * * * * * * * * * * * * * * * * * * * * * * * * * * * * * //
Create time

Create mesh for time = 0

Read mesh in = 0.02 s

Overall mesh bounding box  : (-1.2 -1.2 -0.01) (2.8 1.2 0.01)
Relative tolerance         : 1e-06
Absolute matching distance : 4.6648e-06

SHAFT.stl : using scale 0.001
AMI.stl : using scale 0.001
Reading refinement surfaces.
--> FOAM Warning : 
    From function Foam::surfaceZonesInfo::surfaceZonesInfo(const Foam::searchableSurface&, const Foam::dictionary&)
    in file refinementSurfaces/surfaceZonesInfo.C at line 128
    Reading "/home/ubuntu/GA_IWO/2018_04_06_Final/Results/Generation_44/Specie_0/CFD/system/snappyHexMeshDict.castellatedMeshControls.refinementSurfaces.AMI" from line 160 to line 168
    Illegal entry zoneInside inside for faceZone innerAMI since surface is not closed.
Read refinement surfaces in = 0.02 s

Reading refinement shells.
Refinement level 3 for all cells inside refinementBox
Refinement level 2 for all cells inside refinementBoxWake
Read refinement shells in = 0 s

Setting refinement level of surface to be consistent with shells.
Checked shell refinement in = 0 s

Reading features.
Read features in = 0 s


Determining initial surface intersections
-----------------------------------------

Edge intersection testing:
    Number of edges             : 3904
    Number of edges to retest   : 3904
    Number of intersected edges : 42
Calculated surface intersections in = 0.02 s

Initial mesh : cells:960  faces:3904  points:2050
Cells per refinement level:
    0	960

Adding patches for surface regions
----------------------------------

Patch Type                Region                        
----- ----                ------                        
VAWT1:

6     wall                VAWT1                         

VAWT2:

7     wall                VAWT2                         

VAWT3:

8     wall                VAWT3                         

SHAFT:

9     wall                SHAFT                         

AMI:

10    wall                AMI                           
11    wall                AMI_slave                     

Added patches in = 0 s

Selecting decompositionMethod none
Layer thickness specified as final layer and expansion ratio.

Refinement phase
----------------

Found point (0.5 0 0.001) in cell 456 on processor 0

Surface refinement iteration 0
------------------------------

Marked for refinement due to surface intersection          : 59 cells.
Determined cells to refine in = 0.01 s
Selected for refinement : 59 cells (out of 960)
Edge intersection testing:
    Number of edges             : 5434
    Number of edges to retest   : 1970
    Number of intersected edges : 176
Refined mesh in = 0.01 s
After refinement surface refinement iteration 0 : cells:1373  faces:5434  points:2790
Cells per refinement level:
    0	901
    1	472

Surface refinement iteration 1
------------------------------

Marked for refinement due to surface intersection          : 243 cells.
Determined cells to refine in = 0.01 s
Selected for refinement : 267 cells (out of 1373)
Edge intersection testing:
    Number of edges             : 11977
    Number of edges to retest   : 8494
    Number of intersected edges : 680
Refined mesh in = 0.05 s
After refinement surface refinement iteration 1 : cells:3242  faces:11977  points:5679
Cells per refinement level:
    0	876
    1	430
    2	1936

Surface refinement iteration 2
------------------------------

Marked for refinement due to surface intersection          : 948 cells.
Determined cells to refine in = 0 s
Selected for refinement : 1022 cells (out of 3242)
Edge intersection testing:
    Number of edges             : 36322
    Number of edges to retest   : 31714
    Number of intersected edges : 2752
Refined mesh in = 0.18 s
After refinement surface refinement iteration 2 : cells:10396  faces:36322  points:15895
Cells per refinement level:
    0	874
    1	370
    2	1600
    3	7552

Surface refinement iteration 3
------------------------------

Marked for refinement due to surface intersection          : 968 cells.
Determined cells to refine in = 0.01 s
Selected for refinement : 1100 cells (out of 10396)
Edge intersection testing:
    Number of edges             : 62191
    Number of edges to retest   : 33453
    Number of intersected edges : 4792
Refined mesh in = 0.27 s
After refinement surface refinement iteration 3 : cells:18096  faces:62191  points:26476
Cells per refinement level:
    0	872
    1	360
    2	1688
    3	7560
    4	7616

Surface refinement iteration 4
------------------------------

Marked for refinement due to surface intersection          : 64 cells.
Determined cells to refine in = 0.02 s
Selected for refinement : 78 cells (out of 18096)
Edge intersection testing:
    Number of edges             : 63973
    Number of edges to retest   : 4230
    Number of intersected edges : 4848
Refined mesh in = 0.14 s
After refinement surface refinement iteration 4 : cells:18642  faces:63973  points:27171
Cells per refinement level:
    0	872
    1	358
    2	1692
    3	7592
    4	8128

Surface refinement iteration 5
------------------------------

Marked for refinement due to surface intersection          : 8 cells.
Determined cells to refine in = 0.01 s
Selected for refinement : 8 cells (out of 18642)
Edge intersection testing:
    Number of edges             : 64144
    Number of edges to retest   : 554
    Number of intersected edges : 4848
Refined mesh in = 0.13 s
After refinement surface refinement iteration 5 : cells:18698  faces:64144  points:27230
Cells per refinement level:
    0	872
    1	358
    2	1692
    3	7584
    4	8192

Surface refinement iteration 6
------------------------------

Marked for refinement due to surface intersection          : 0 cells.
Determined cells to refine in = 0.02 s
Selected for refinement : 0 cells (out of 18698)
Stopping refining since too few cells selected.


Removing mesh beyond surface intersections
------------------------------------------

Found point (0.5 0 0.001) in global region 0 out of 1 regions.
Keeping all cells in region 0 containing point (0.5 0 0.001)
Selected for keeping : 18698 cells.
Edge intersection testing:
    Number of edges             : 64144
    Number of edges to retest   : 0
    Number of intersected edges : 4848

Shell refinement iteration 0
----------------------------

Marked for refinement due to distance to explicit features : 0 cells.
Marked for refinement due to refinement shells             : 1820 cells.
Determined cells to refine in = 0.58 s
Selected for internal refinement : 3567 cells (out of 18698)
Edge intersection testing:
    Number of edges             : 141700
    Number of edges to retest   : 127150
    Number of intersected edges : 4896
Refined mesh in = 0.64 s
After refinement shell refinement iteration 0 : cells:43667  faces:141700  points:54821
Cells per refinement level:
    0	703
    1	1364
    2	2832
    3	19184
    4	19584

Shell refinement iteration 1
----------------------------

Marked for refinement due to distance to explicit features : 0 cells.
Marked for refinement due to refinement shells             : 2944 cells.
Determined cells to refine in = 0.04 s
Selected for internal refinement : 3389 cells (out of 43667)
Edge intersection testing:
    Number of edges             : 215215
    Number of edges to retest   : 114171
    Number of intersected edges : 4944
Refined mesh in = 0.42 s
After refinement shell refinement iteration 1 : cells:67390  faces:215215  points:80816
Cells per refinement level:
    0	598
    1	1096
    2	9728
    3	34720
    4	21248

Shell refinement iteration 2
----------------------------

Marked for refinement due to distance to explicit features : 0 cells.
Marked for refinement due to refinement shells             : 144 cells.
Determined cells to refine in = 0.05 s
Selected for internal refinement : 154 cells (out of 67390)
Edge intersection testing:
    Number of edges             : 218575
    Number of edges to retest   : 7479
    Number of intersected edges : 4944
Refined mesh in = 0.24 s
After refinement shell refinement iteration 2 : cells:68468  faces:218575  points:82020
Cells per refinement level:
    0	596
    1	1104
    2	9648
    3	35872
    4	21248

Shell refinement iteration 3
----------------------------

Marked for refinement due to distance to explicit features : 0 cells.
Marked for refinement due to refinement shells             : 0 cells.
Determined cells to refine in = 0.05 s
Selected for internal refinement : 6 cells (out of 68468)
Edge intersection testing:
    Number of edges             : 218719
    Number of edges to retest   : 440
    Number of intersected edges : 4944
Refined mesh in = 0.25 s
After refinement shell refinement iteration 3 : cells:68510  faces:218719  points:82080
Cells per refinement level:
    0	590
    1	1152
    2	9648
    3	35872
    4	21248

Shell refinement iteration 4
----------------------------

Marked for refinement due to distance to explicit features : 0 cells.
Marked for refinement due to refinement shells             : 0 cells.
Determined cells to refine in = 0.06 s
Selected for internal refinement : 0 cells (out of 68510)
Stopping refining since too few cells selected.


Dangling coarse cells refinement iteration 0
--------------------------------------------

Determined cells to refine in = 0 s
Selected for refinement : 0 cells (out of 68510)
Stopping refining since too few cells selected.


Dangling coarse cells refinement iteration 0
--------------------------------------------

Determined cells to refine in = 0 s
Selected for refinement : 0 cells (out of 68510)
Stopping refining since too few cells selected.


Splitting mesh at surface intersections
---------------------------------------

Introducing baffles for 4944 faces that are intersected by the surface.

Edge intersection testing:
    Number of edges             : 221615
    Number of edges to retest   : 18585
    Number of intersected edges : 7840
Created baffles in = 0.21 s


After introducing baffles : cells:68510  faces:221615  points:82080
Cells per refinement level:
    0	590
    1	1152
    2	9648
    3	35872
    4	21248

Introducing baffles to block off problem cells
----------------------------------------------

markFacesOnProblemCells : marked 0 additional internal faces to be converted into baffles.
Analyzed problem cells in = 0.17 s


Introducing baffles to delete problem cells.

Edge intersection testing:
    Number of edges             : 221615
    Number of edges to retest   : 0
    Number of intersected edges : 7840
Created baffles in = 0.16 s


After introducing baffles : cells:68510  faces:221615  points:82080
Cells per refinement level:
    0	590
    1	1152
    2	9648
    3	35872
    4	21248

Remove unreachable sections of mesh
-----------------------------------

Keeping all cells in region 0 containing point (0.5 0 0.001)
Selected for keeping : 68478 cells.
Edge intersection testing:
    Number of edges             : 221483
    Number of edges to retest   : 0
    Number of intersected edges : 7776
Split mesh in = 1.86 s


After subsetting : cells:68478  faces:221483  points:82071
Cells per refinement level:
    0	590
    1	1152
    2	9648
    3	35840
    4	21248

Introducing zones for interfaces
--------------------------------

Surface : AMI
    faceZone : innerAMI
    cellZone : innerAMI
Walking from location-in-mesh (0.5 0 0.001) to assign cellZones - crossing a faceZone face changes cellZone

Found point (0.5 0 0.001) in global region 0 out of 2 regions.
Only keeping zone faces inbetween different cellZones.

CellZones:
    innerAMI	size:44384

FaceZones:
    innerAMI	size:2048

Edge intersection testing:
    Number of edges             : 221483
    Number of edges to retest   : 0
    Number of intersected edges : 7776

Handling cells with snap problems
---------------------------------

Introducing baffles for 7776 faces that are intersected by the surface.

Edge intersection testing:
    Number of edges             : 221483
    Number of edges to retest   : 18453
    Number of intersected edges : 7776
Created baffles in = 2.12 s


After introducing baffles : cells:68478  faces:221483  points:82071
Cells per refinement level:
    0	590
    1	1152
    2	9648
    3	35840
    4	21248

Introducing baffles to block off problem cells
----------------------------------------------

markFacesOnProblemCells : marked 0 additional internal faces to be converted into baffles.
Analyzed problem cells in = 0.14 s


Introducing baffles to delete problem cells.

Edge intersection testing:
    Number of edges             : 221483
    Number of edges to retest   : 0
    Number of intersected edges : 7776
Created baffles in = 0.14 s


After introducing baffles : cells:68478  faces:221483  points:82071
Cells per refinement level:
    0	590
    1	1152
    2	9648
    3	35840
    4	21248

Remove unreachable sections of mesh
-----------------------------------

Keeping all cells in region 0 containing point (0.5 0 0.001)
Selected for keeping : 68478 cells.
Edge intersection testing:
    Number of edges             : 221483
    Number of edges to retest   : 0
    Number of intersected edges : 7776
Split mesh in = 1.69 s


After subsetting : cells:68478  faces:221483  points:82071
Cells per refinement level:
    0	590
    1	1152
    2	9648
    3	35840
    4	21248

Merge free-standing baffles
---------------------------

freeStandingBaffles : detected 96 free-standing baffles out of 2832

freeStandingBaffles : detected 0 planar (within 54 degrees) free-standing baffles out of 96

Detected free-standing baffles : 0
Merged free-standing baffles in = 0.12 s


dupNonManifoldPoints : Found : 2958 non-manifold points (out of 82071)
Edge intersection testing:
    Number of edges             : 221483
    Number of edges to retest   : 0
    Number of intersected edges : 7776
Detected unsplittable baffles : 0

Merge refined boundary faces
----------------------------

Merging 0 sets of faces.

No faces merged ...

Merging all points on surface that
- are used by only two boundary faces and
- make an angle with a cosine of more than 0.707107.

No straight edges simplified and no points removed ...
Refined mesh : cells:68478  faces:221483  points:85029
Cells per refinement level:
    0	590
    1	1152
    2	9648
    3	35840
    4	21248
Writing mesh to time constant
Wrote mesh in = 0.96 s.
Mesh refined in = 10.76 s.

Morphing phase
--------------

Converting zoned faces into baffles ...
For zone innerAMI found patches AMI and AMI_slave
Edge intersection testing:
    Number of edges             : 223531
    Number of edges to retest   : 13196
    Number of intersected edges : 9824
Created 2048 baffles in = 0.35 s


Surface : AMI
    faces to become baffle : 4096
    points to duplicate    : 2304
dupNonManifoldPoints : Found : 2304 non-manifold points (out of 85029)
Edge intersection testing:
    Number of edges             : 223531
    Number of edges to retest   : 0
    Number of intersected edges : 9824

Snapping to features in 5 iterations ...
Constructing mesh displacer ...
Using mesh parameters 
{
    maxNonOrtho     180;
    maxBoundarySkewness 20;
    maxInternalSkewness 4;
    maxConcave      80;
    minVol          1e-13;
    minTetQuality   1e-15;
    minArea         -1;
    minTwist        0.02;
    minDeterminant  0.001;
    minFaceWeight   0.02;
    minVolRatio     0.01;
    minTriangleTwist -1;
    relaxed
    {
        maxNonOrtho     180;
    }
    nSmoothScale    4;
    errorReduction  0.75;
}


Checking initial mesh ...
Checking faces in error :
    faces with face pyramid volume < 1e-13                 : 0
    faces with face-decomposition tet quality < 1e-15      : 0
    faces with concavity > 80  degrees                     : 0
    faces with skewness > 4   (internal) or 20  (boundary) : 0
    faces with interpolation weights (0..1)  < 0.02        : 0
    faces with volume ratio of neighbour cells < 0.01      : 0
    faces with face twist < 0.02                           : 0
    faces on cells with determinant < 0.001                : 0
Detected 0 illegal faces (concave, zero area or negative cell pyramid volume)
Checked initial mesh in = 0.84 s


Smoothing patch points ...
Smoothing iteration 0
Found 10524 non-manifold point(s).

Scaling iteration 0
Moving mesh using displacement scaling : min:1  max:1
Correcting 2-D mesh motion--> FOAM Warning : 
    From function void Foam::twoDPointCorrector::calcAddressing() const
    in file twoDPointCorrector/twoDPointCorrector.C at line 151
    the number of vertices in the geometry is odd - this should not be the case for a 2-D case. Please check the geometry.
--> FOAM Warning : 
    From function void Foam::twoDPointCorrector::calcAddressing() const
    in file twoDPointCorrector/twoDPointCorrector.C at line 160
    The number of points in the mesh is not equal to twice the number of edges normal to the plane - this may be OK only for wedge geometries.
    Please check the geometry or adjust the orthogonality tolerance.

Number of normal edges: 77165 number of points: 87333
 ...done
Checking faces in error :
    faces with face pyramid volume < 1e-13                 : 0
    faces with face-decomposition tet quality < 1e-15      : 0
    faces with concavity > 80  degrees                     : 0
    faces with skewness > 4   (internal) or 20  (boundary) : 0
    faces with interpolation weights (0..1)  < 0.02        : 0
    faces with volume ratio of neighbour cells < 0.01      : 0
    faces with face twist < 0.02                           : 0
    faces on cells with determinant < 0.001                : 0
Successfully moved mesh

Smoothing iteration 1
Found 0 non-manifold point(s).

Scaling iteration 0
Moving mesh using displacement scaling : min:1  max:1
Correcting 2-D mesh motion ...done
Checking faces in error :
    faces with face pyramid volume < 1e-13                 : 0
    faces with face-decomposition tet quality < 1e-15      : 0
    faces with concavity > 80  degrees                     : 0
    faces with skewness > 4   (internal) or 20  (boundary) : 0
    faces with interpolation weights (0..1)  < 0.02        : 0
    faces with volume ratio of neighbour cells < 0.01      : 0
    faces with face twist < 0.02                           : 0
    faces on cells with determinant < 0.001                : 0
Successfully moved mesh

Smoothing iteration 2
Found 0 non-manifold point(s).

Scaling iteration 0
Moving mesh using displacement scaling : min:1  max:1
Correcting 2-D mesh motion ...done
Checking faces in error :
    faces with face pyramid volume < 1e-13                 : 0
    faces with face-decomposition tet quality < 1e-15      : 0
    faces with concavity > 80  degrees                     : 0
    faces with skewness > 4   (internal) or 20  (boundary) : 0
    faces with interpolation weights (0..1)  < 0.02        : 0
    faces with volume ratio of neighbour cells < 0.01      : 0
    faces with face twist < 0.02                           : 0
    faces on cells with determinant < 0.001                : 0
Successfully moved mesh

Smoothing iteration 3
Found 0 non-manifold point(s).

Scaling iteration 0
Moving mesh using displacement scaling : min:1  max:1
Correcting 2-D mesh motion ...done
Checking faces in error :
    faces with face pyramid volume < 1e-13                 : 0
    faces with face-decomposition tet quality < 1e-15      : 0
    faces with concavity > 80  degrees                     : 0
    faces with skewness > 4   (internal) or 20  (boundary) : 0
    faces with interpolation weights (0..1)  < 0.02        : 0
    faces with volume ratio of neighbour cells < 0.01      : 0
    faces with face twist < 0.02                           : 0
    faces on cells with determinant < 0.001                : 0
Successfully moved mesh

Patch points smoothed in = 2.55 s



Morph iteration 0
-----------------
Calculating patchDisplacement as distance to nearest surface point ...
Wanted displacement : average:0.0040937 min:5.03948e-07 max:0.00912421
Calculated surface displacement in = 0.12 s


Detecting near surfaces ...
Overriding nearest with intersection of close gaps at 0 out of 10698 points.
Overriding displacement on features :
   implicit features    : false
   explicit features    : true
   multi-patch features : true

Detected 96 baffle edges out of 20522 edges.
Initially selected 0 points out of 10698 for reverse attraction.
Selected 0 points out of 10698 for reverse attraction.
Removing constraints near multi-patch points : changed 0 points
Stringing feature edges : changed 0 points
Attraction:
     linear   : max:(0.00901798 0.00138831 -2.60209e-18) avg:(-2.25016e-05 -3.2014e-05 -3.30399e-14)
     feature  : max:(0 0 0) avg:(0 0 0)
Feature analysis : total master points:10698 attraction to :
    feature point   : 0
    feature edge    : 0
    nearest surface : 0
    rest            : 10698

--> FOAM Warning : Displacement (-8.80158e-06 0.000200794 1.52827e-07) at mesh point 6440 coord (-0.0668507 0.187691 -0.0075) points through the surrounding patch faces
Smoothing displacement ...
Iteration 0
Iteration 10
Iteration 20
Iteration 30
Iteration 40
Iteration 50
Iteration 60
Iteration 70
Iteration 80
Iteration 90
Iteration 100
Iteration 110
Iteration 120
Iteration 130
Iteration 140
Iteration 150
Iteration 160
Iteration 170
Displacement smoothed in = 2.13 s


Moving mesh ...

Iteration 0
Moving mesh using displacement scaling : min:1  max:1
Correcting 2-D mesh motion ...done
Checking faces in error :
    faces with face pyramid volume < 1e-13                 : 0
    faces with face-decomposition tet quality < 1e-15      : 0
    faces with concavity > 80  degrees                     : 0
    faces with skewness > 4   (internal) or 20  (boundary) : 0
    faces with interpolation weights (0..1)  < 0.02        : 0
    faces with volume ratio of neighbour cells < 0.01      : 0
    faces with face twist < 0.02                           : 0
    faces on cells with determinant < 0.001                : 0
Successfully moved mesh
Moved mesh in = 0.46 s



Morph iteration 1
-----------------
Calculating patchDisplacement as distance to nearest surface point ...
Wanted displacement : average:0.00330179 min:1.11744e-05 max:0.00756431
Calculated surface displacement in = 0.07 s


Detecting near surfaces ...
Overriding nearest with intersection of close gaps at 0 out of 10698 points.
Overriding displacement on features :
   implicit features    : false
   explicit features    : true
   multi-patch features : true

Detected 96 baffle edges out of 20522 edges.
Initially selected 0 points out of 10698 for reverse attraction.
Selected 0 points out of 10698 for reverse attraction.
Removing constraints near multi-patch points : changed 0 points
Stringing feature edges : changed 0 points
Attraction:
     linear   : max:(0.00747623 0.00115096 -5.81132e-17) avg:(-1.81407e-05 -2.57841e-05 6.36191e-15)
     feature  : max:(0 0 0) avg:(0 0 0)
Feature analysis : total master points:10698 attraction to :
    feature point   : 0
    feature edge    : 0
    nearest surface : 0
    rest            : 10698

--> FOAM Warning : Displacement (-5.21469e-05 0.000321859 1.61886e-06) at mesh point 6440 coord (-0.0669359 0.187893 -0.0075) points through the surrounding patch faces
Smoothing displacement ...
Iteration 0
Iteration 10
Iteration 20
Iteration 30
Iteration 40
Iteration 50
Iteration 60
Iteration 70
Iteration 80
Iteration 90
Iteration 100
Iteration 110
Iteration 120
Iteration 130
Iteration 140
Iteration 150
Iteration 160
Iteration 170
Displacement smoothed in = 1.89 s


Moving mesh ...

Iteration 0
Moving mesh using displacement scaling : min:1  max:1
Correcting 2-D mesh motion ...done
Checking faces in error :
    faces with face pyramid volume < 1e-13                 : 0
    faces with face-decomposition tet quality < 1e-15      : 0
    faces with concavity > 80  degrees                     : 0
    faces with skewness > 4   (internal) or 20  (boundary) : 0
    faces with interpolation weights (0..1)  < 0.02        : 0
    faces with volume ratio of neighbour cells < 0.01      : 0
    faces with face twist < 0.02                           : 0
    faces on cells with determinant < 0.001                : 0
Successfully moved mesh
Moved mesh in = 0.41 s



Morph iteration 2
-----------------
Calculating patchDisplacement as distance to nearest surface point ...
Wanted displacement : average:0.00201919 min:8.80107e-06 max:0.00491824
Calculated surface displacement in = 0.06 s


Detecting near surfaces ...
Overriding nearest with intersection of close gaps at 0 out of 10698 points.
Overriding displacement on features :
   implicit features    : false
   explicit features    : true
   multi-patch features : true

Detected 96 baffle edges out of 20522 edges.
Initially selected 0 points out of 10698 for reverse attraction.
Selected 0 points out of 10698 for reverse attraction.
Removing constraints near multi-patch points : changed 0 points
Stringing feature edges : changed 0 points
Attraction:
     linear   : max:(0.00486098 0.000748344 -5.81132e-17) avg:(-1.12506e-05 -1.5499e-05 -4.39537e-15)
     feature  : max:(0 0 0) avg:(0 0 0)
Feature analysis : total master points:10698 attraction to :
    feature point   : 0
    feature edge    : 0
    nearest surface : 0
    rest            : 10698

--> FOAM Warning : Displacement (-5.65392e-05 0.00019042 -4.1137e-06) at mesh point 24445 coord (-0.0938038 0.233231 -0.0075) points through the surrounding patch faces
Smoothing displacement ...
Iteration 0
Iteration 10
Iteration 20
Iteration 30
Iteration 40
Iteration 50
Iteration 60
Iteration 70
Iteration 80
Iteration 90
Iteration 100
Iteration 110
Iteration 120
Iteration 130
Iteration 140
Iteration 150
Iteration 160
Iteration 170
Displacement smoothed in = 1.68 s


Moving mesh ...

Iteration 0
Moving mesh using displacement scaling : min:1  max:1
Correcting 2-D mesh motion ...done
Checking faces in error :
    faces with face pyramid volume < 1e-13                 : 0
    faces with face-decomposition tet quality < 1e-15      : 0
    faces with concavity > 80  degrees                     : 0
    faces with skewness > 4   (internal) or 20  (boundary) : 0
    faces with interpolation weights (0..1)  < 0.02        : 0
    faces with volume ratio of neighbour cells < 0.01      : 0
    faces with face twist < 0.02                           : 0
    faces on cells with determinant < 0.001                : 0
Successfully moved mesh
Moved mesh in = 0.44 s



Morph iteration 3
-----------------
Calculating patchDisplacement as distance to nearest surface point ...
Wanted displacement : average:0.000844389 min:4.4453e-07 max:0.0023612
Calculated surface displacement in = 0.05 s


Detecting near surfaces ...
Overriding nearest with intersection of close gaps at 0 out of 10698 points.
Overriding displacement on features :
   implicit features    : false
   explicit features    : true
   multi-patch features : true

Detected 96 baffle edges out of 20522 edges.
Initially selected 0 points out of 10698 for reverse attraction.
Selected 0 points out of 10698 for reverse attraction.
Removing constraints near multi-patch points : changed 0 points
Stringing feature edges : changed 0 points
Attraction:
     linear   : max:(0.00108109 -0.00209917 2.50629e-13) avg:(-4.57333e-06 -6.11469e-06 1.03614e-15)
     feature  : max:(0 0 0) avg:(0 0 0)
Feature analysis : total master points:10698 attraction to :
    feature point   : 0
    feature edge    : 0
    nearest surface : 0
    rest            : 10698

--> FOAM Warning : Displacement (1.33777e-05 2.78889e-05 -6.57609e-07) at mesh point 26203 coord (0.0449074 0.19585 -0.01) points through the surrounding patch faces
Smoothing displacement ...
Iteration 0
Iteration 10
Iteration 20
Iteration 30
Iteration 40
Iteration 50
Iteration 60
Iteration 70
Iteration 80
Iteration 90
Iteration 100
Iteration 110
Iteration 120
Iteration 130
Iteration 140
Iteration 150
Iteration 160
Iteration 170
Displacement smoothed in = 1.51 s


Moving mesh ...

Iteration 0
Moving mesh using displacement scaling : min:1  max:1
Correcting 2-D mesh motion ...done
Checking faces in error :
    faces with face pyramid volume < 1e-13                 : 0
    faces with face-decomposition tet quality < 1e-15      : 0
    faces with concavity > 80  degrees                     : 0
    faces with skewness > 4   (internal) or 20  (boundary) : 0
    faces with interpolation weights (0..1)  < 0.02        : 0
    faces with volume ratio of neighbour cells < 0.01      : 0
    faces with face twist < 0.02                           : 0
    faces on cells with determinant < 0.001                : 0
Successfully moved mesh
Moved mesh in = 0.64 s



Morph iteration 4
-----------------
Calculating patchDisplacement as distance to nearest surface point ...
Wanted displacement : average:0.000204308 min:1.79038e-07 max:0.00124064
Calculated surface displacement in = 0.09 s


Detecting near surfaces ...
Overriding nearest with intersection of close gaps at 0 out of 10698 points.
Overriding displacement on features :
   implicit features    : false
   explicit features    : true
   multi-patch features : true

Detected 96 baffle edges out of 20522 edges.
Initially selected 0 points out of 10698 for reverse attraction.
Selected 0 points out of 10698 for reverse attraction.
Removing constraints near multi-patch points : changed 0 points
Stringing feature edges : changed 0 points
Attraction:
     linear   : max:(3.07481e-05 0.00124026 3.46945e-18) avg:(-1.01678e-06 -1.16267e-06 2.38234e-16)
     feature  : max:(0 0 0) avg:(0 0 0)
Feature analysis : total master points:10698 attraction to :
    feature point   : 0
    feature edge    : 0
    nearest surface : 0
    rest            : 10698

--> FOAM Warning : Displacement (-2.62325e-06 -3.94977e-06 5.20417e-18) at mesh point 82668 coord (-0.0964642 0.197208 -0.01) points through the surrounding patch faces
Smoothing displacement ...
Iteration 0
Iteration 10
Iteration 20
Iteration 30
Iteration 40
Iteration 50
Iteration 60
Iteration 70
Iteration 80
Iteration 90
Iteration 100
Iteration 110
Iteration 120
Iteration 130
Iteration 140
Iteration 150
Iteration 160
Iteration 170
Displacement smoothed in = 2.34 s


Moving mesh ...

Iteration 0
Moving mesh using displacement scaling : min:1  max:1
Correcting 2-D mesh motion ...done
Checking faces in error :
    faces with face pyramid volume < 1e-13                 : 0
    faces with face-decomposition tet quality < 1e-15      : 0
    faces with concavity > 80  degrees                     : 0
    faces with skewness > 4   (internal) or 20  (boundary) : 0
    faces with interpolation weights (0..1)  < 0.02        : 0
    faces with volume ratio of neighbour cells < 0.01      : 0
    faces with face twist < 0.02                           : 0
    faces on cells with determinant < 0.001                : 0
Successfully moved mesh
Moved mesh in = 0.69 s


Repatching faces according to nearest surface ...
Repatched 0 faces in = 0.1 s


Edge intersection testing:
    Number of edges             : 223531
    Number of edges to retest   : 100510
    Number of intersected edges : 9824
Merging 2800 sets of faces.

Edge intersection testing:
    Number of edges             : 220731
    Number of edges to retest   : 11433
    Number of intersected edges : 6992

Undo iteration 0
----------------
Checking faces in error :
    faces with face pyramid volume < 1e-13                 : 0
    faces with face-decomposition tet quality < 1e-15      : 0
    faces with concavity > 80  degrees                     : 0
    faces with skewness > 4   (internal) or 20  (boundary) : 0
    faces with interpolation weights (0..1)  < 0.02        : 0
    faces with volume ratio of neighbour cells < 0.01      : 0
    faces with face twist < 0.02                           : 0
    faces on cells with determinant < 0.001                : 0

Merging all points on surface that
- are used by only two boundary faces and
- make an angle with a cosine of more than 0.587785.

Removing 3049 straight edge points ...

Edge intersection testing:
    Number of edges             : 220731
    Number of edges to retest   : 11433
    Number of intersected edges : 6960

Undo iteration 0
----------------
Checking faces in error :
    faces with face pyramid volume < 1e-13                 : 0
    faces with face-decomposition tet quality < 1e-15      : 0
    faces with concavity > 80  degrees                     : 0
    faces with skewness > 4   (internal) or 20  (boundary) : 0
    faces with interpolation weights (0..1)  < 0.02        : 0
    faces with volume ratio of neighbour cells < 0.01      : 0
    faces with face twist < 0.02                           : 0
    faces on cells with determinant < 0.001                : 0
Snapped mesh : cells:68478  faces:220731  points:84284
Cells per refinement level:
    0	590
    1	1152
    2	9648
    3	35840
    4	21248
Writing mesh to time constant
Wrote mesh in = 3.06 s.
Mesh snapped in = 19.48 s.

Shrinking and layer addition phase
----------------------------------

Using mesh parameters 
{
    maxNonOrtho     180;
    maxBoundarySkewness 20;
    maxInternalSkewness 4;
    maxConcave      80;
    minVol          1e-13;
    minTetQuality   1e-15;
    minArea         -1;
    minTwist        0.02;
    minDeterminant  0.001;
    minFaceWeight   0.02;
    minVolRatio     0.01;
    minTriangleTwist -1;
    relaxed
    {
        maxNonOrtho     180;
    }
    nSmoothScale    4;
    errorReduction  0.75;
}



Merging all faces of a cell
---------------------------
    - which are on the same patch
    - which make an angle < 95 degrees
      (cos:-0.0871557)
    - as long as the resulting face doesn't become concave by more than 90 degrees
      (0=straight, 180=fully concave)

Merging 0 sets of faces.

No faces merged ...

Merging all points on surface that
- are used by only two boundary faces and
- make an angle with a cosine of more than -0.0871557.

No straight edges simplified and no points removed ...

Checking mesh manifoldness ...

Checking initial mesh ...
Checking faces in error :
    faces with face pyramid volume < 1e-13                 : 0
    faces with face-decomposition tet quality < 1e-15      : 0
    faces with concavity > 80  degrees                     : 0
    faces with skewness > 4   (internal) or 20  (boundary) : 0
    faces with interpolation weights (0..1)  < 0.02        : 0
    faces with volume ratio of neighbour cells < 0.01      : 0
    faces with face twist < 0.02                           : 0
    faces on cells with determinant < 0.001                : 0
Detected 0 illegal faces (concave, zero area or negative cell pyramid volume)
Converting zoned faces into baffles ...
For zone innerAMI found patches AMI and AMI_slave
Created 0 baffles in = 0.7 s



Adding in total 0 inter-processor patches to handle extrusion of non-manifold processor boundaries.

Handling points with inconsistent layer specification ...

Handling non-manifold points ...

Checking patch manifoldness ...
Outside of local patch is multiply connected across edges or points at 0 points.
Set displacement to zero for all 0 non-manifold points

Handling feature edges ...

Handling cells with warped patch faces ...
Set displacement to zero on 0 warped faces since layer would be > 0.8 of the size of the bounding box.

patch faces    layers avg thickness[m]
                      near-wall overall
----- -----    ------ --------- -------
VAWT1 1408     5      0.00041   0.00336 
VAWT2 1392     5      0.00041   0.00336 
VAWT3 1248     5      0.00041   0.00336 
SHAFT 64       5      0.000819  0.00672 

Selecting externalDisplacementMeshMover displacementMedialAxis
displacementMedialAxis : Calculating distance to Medial Axis ...
displacementMedialAxis : Smoothing normals ...
    Iteration 0   residual 0.0244214
displacementMedialAxis : Limited walk to 4 steps. Not visited 61514 out of 84284 points
displacementMedialAxis : Inserting points on patch inlet if angle to nearest layer patch > 47.5 degrees.
displacementMedialAxis : Inserting points on patch outlet if angle to nearest layer patch > 47.5 degrees.
displacementMedialAxis : Inserting points on patch top if angle to nearest layer patch > 47.5 degrees.
displacementMedialAxis : Inserting points on patch bottom if angle to nearest layer patch > 47.5 degrees.
displacementMedialAxis : Inserting points on patch AMI if angle to nearest layer patch > 47.5 degrees.
displacementMedialAxis : Inserting points on patch AMI_slave if angle to nearest layer patch > 47.5 degrees.
displacementMedialAxis : Smoothing normals in interior ...
    Iteration 0   residual 0.020322

Layer addition iteration 0
--------------------------

Determining displacement for added points according to pointNormal ...
Detected 0 points with point normal pointing through faces.
Reset displacement at 0 points to average of surrounding points.

displacementMedialAxis : Smoothing using Medial Axis ...
displacementMedialAxis : Reducing layer thickness at 16 nodes where thickness to medial axis distance is large 
displacementMedialAxis : Removing isolated regions ...
displacementMedialAxis : Number of isolated points extrusion stopped : 0
displacementMedialAxis : Smoothing field ...
    Iteration 0   residual 7.84631e-07
displacementMedialAxis : Moving mesh ...
displacementMedialAxis : Iteration 0
Moving mesh using displacement scaling : min:1  max:1
Correcting 2-D mesh motion--> FOAM Warning : 
    From function void Foam::twoDPointCorrector::calcAddressing() const
    in file twoDPointCorrector/twoDPointCorrector.C at line 160
    The number of points in the mesh is not equal to twice the number of edges normal to the plane - this may be OK only for wedge geometries.
    Please check the geometry or adjust the orthogonality tolerance.

Number of normal edges: 74202 number of points: 84284
 ...done
Checking faces in error :
    faces with face pyramid volume < 1e-13                 : 0
    faces with face-decomposition tet quality < 1e-15      : 0
    faces with concavity > 80  degrees                     : 0
    faces with skewness > 4   (internal) or 20  (boundary) : 0
    faces with interpolation weights (0..1)  < 0.02        : 0
    faces with volume ratio of neighbour cells < 0.01      : 0
    faces with face twist < 0.02                           : 0
    faces on cells with determinant < 0.001                : 0
displacementMedialAxis : Successfully moved mesh
displacementMedialAxis : Finished moving mesh ...
truncateDisplacement : Unextruded 0 faces due to non-consecutive vertices being extruded.
truncateDisplacement : Unextruded 0 faces due to stringed edges with inconsistent extrusion.

Setting up information for layer truncation ...

Checking mesh with layer ...
Checking faces in error :
    faces with face pyramid volume < 1e-13                 : 749
    faces with face-decomposition tet quality < 1e-15      : 329
    faces with concavity > 80  degrees                     : 0
    faces with skewness > 4   (internal) or 20  (boundary) : 154
    faces with interpolation weights (0..1)  < 0.02        : 10
    faces with volume ratio of neighbour cells < 0.01      : 4
    faces with face twist < 0.02                           : 0
    faces on cells with determinant < 0.001                : 0
Detected 1246 illegal faces (concave, zero area or negative cell pyramid volume)
Extruding 3852 out of 4112 faces (93.677%). Removed extrusion at 184 faces.
Added 20560 out of 20560 cells (100%).


Layer addition iteration 1
--------------------------

Determining displacement for added points according to pointNormal ...
Detected 0 points with point normal pointing through faces.
Reset displacement at 0 points to average of surrounding points.

displacementMedialAxis : Smoothing using Medial Axis ...
displacementMedialAxis : Reducing layer thickness at 0 nodes where thickness to medial axis distance is large 
displacementMedialAxis : Removing isolated regions ...
displacementMedialAxis : Number of isolated points extrusion stopped : 2
displacementMedialAxis : Smoothing field ...
    Iteration 0   residual 7.44698e-06
displacementMedialAxis : Moving mesh ...
displacementMedialAxis : Iteration 0
Moving mesh using displacement scaling : min:1  max:1
Correcting 2-D mesh motion ...done
Checking faces in error :
    faces with face pyramid volume < 1e-13                 : 0
    faces with face-decomposition tet quality < 1e-15      : 0
    faces with concavity > 80  degrees                     : 0
    faces with skewness > 4   (internal) or 20  (boundary) : 0
    faces with interpolation weights (0..1)  < 0.02        : 0
    faces with volume ratio of neighbour cells < 0.01      : 0
    faces with face twist < 0.02                           : 0
    faces on cells with determinant < 0.001                : 0
displacementMedialAxis : Successfully moved mesh
displacementMedialAxis : Finished moving mesh ...
truncateDisplacement : Unextruded 0 faces due to non-consecutive vertices being extruded.
truncateDisplacement : Unextruded 0 faces due to stringed edges with inconsistent extrusion.

Setting up information for layer truncation ...

Checking mesh with layer ...
Checking faces in error :
    faces with face pyramid volume < 1e-13                 : 0
    faces with face-decomposition tet quality < 1e-15      : 0
    faces with concavity > 80  degrees                     : 0
    faces with skewness > 4   (internal) or 20  (boundary) : 0
    faces with interpolation weights (0..1)  < 0.02        : 0
    faces with volume ratio of neighbour cells < 0.01      : 0
    faces with face twist < 0.02                           : 0
    faces on cells with determinant < 0.001                : 0
Detected 0 illegal faces (concave, zero area or negative cell pyramid volume)
Extruding 3850 out of 4112 faces (93.6284%). Removed extrusion at 0 faces.
Added 17310 out of 20560 cells (84.1926%).
Edge intersection testing:
    Number of edges             : 274052
    Number of edges to retest   : 0
    Number of intersected edges : 23950
Writing 17310 added cells to cellSet addedCells
Writing 13460 faces inside added layer to faceSet layerFaces

Writing fields with layer information:
    nSurfaceLayers    : actual number of layers
    thickness         : overall layer thickness
    thicknessFraction : overall layer thickness (fraction of desired thickness)


patch faces    layers   overall thickness
                        [m]       [%]
----- -----    ------   ---       ---
VAWT1 1408     4.2      0.003     89.1    
VAWT2 1392     4.16     0.00297   88.2    
VAWT3 1248     4.23     0.00304   90.5    
SHAFT 64       5        0.00672   100     

Layer mesh : cells:85788  faces:274052  points:103003
Cells per refinement level:
    0	590
    1	1152
    2	9648
    3	36160
    4	38238
Writing mesh to time constant
Wrote mesh in = 4.42 s.
Layers added in = 5.12 s.
Checking final mesh ...
Checking faces in error :
    faces with face pyramid volume < 1e-13                 : 0
    faces with face-decomposition tet quality < 1e-15      : 0
    faces with concavity > 80  degrees                     : 0
    faces with skewness > 4   (internal) or 20  (boundary) : 0
    faces with interpolation weights (0..1)  < 0.02        : 0
    faces with volume ratio of neighbour cells < 0.01      : 0
    faces with face twist < 0.02                           : 0
    faces on cells with determinant < 0.001                : 0
Finished meshing without any errors
Finished meshing in = 35.83 s.
End

/*---------------------------------------------------------------------------*\
| =========                 |                                                 |
| \\      /  F ield         | OpenFOAM: The Open Source CFD Toolbox           |
|  \\    /   O peration     | Version:  5.x                                   |
|   \\  /    A nd           | Web:      www.OpenFOAM.org                      |
|    \\/     M anipulation  |                                                 |
\*---------------------------------------------------------------------------*/
Build  : 5.x-197d9d3bf20a
Exec   : extrudeMesh
Date   : Apr 14 2018
Time   : 06:23:31
Host   : "ip-172-31-29-165"
PID    : 33289
I/O    : uncollated
Case   : /home/ubuntu/GA_IWO/2018_04_06_Final/Results/Generation_44/Specie_0/CFD
nProcs : 1
sigFpe : Enabling floating point exception trapping (FOAM_SIGFPE).
fileModificationChecking : Monitoring run-time modified files using timeStampMaster (fileModificationSkew 10)
allowSystemOperations : Allowing user-supplied system call operations

// * * * * * * * * * * * * * * * * * * * * * * * * * * * * * * * * * * * * * //
Create time

Create mesh for time = 0

Selecting extrudeModel linearNormal
Extruding from patch using model linearNormal
Flipping normals before extruding
Not collapsing any edges after extrusion

Extruding patches 1(front) on mesh "/home/ubuntu/GA_IWO/2018_04_06_Final/Results/Generation_44/Specie_0/CFD"

Create mesh for time = 0

Adding overall 0 processor patches.
Testing:"/home/ubuntu/GA_IWO/2018_04_06_Final/Results/Generation_44/Specie_0/CFD/system/fvSchemes"
Mesh bounding box : (-1.2 -1.2 -0.01) (2.8 1.2 0.04)
        with span : (4 2.4 0.05)
Merge distance    : 0

Writing mesh to "/home/ubuntu/GA_IWO/2018_04_06_Final/Results/Generation_44/Specie_0/CFD/constant/region0"

End

/*---------------------------------------------------------------------------*\
| =========                 |                                                 |
| \\      /  F ield         | OpenFOAM: The Open Source CFD Toolbox           |
|  \\    /   O peration     | Version:  5.x                                   |
|   \\  /    A nd           | Web:      www.OpenFOAM.org                      |
|    \\/     M anipulation  |                                                 |
\*---------------------------------------------------------------------------*/
Build  : 5.x-197d9d3bf20a
Exec   : createPatch -overwrite
Date   : Apr 14 2018
Time   : 06:23:32
Host   : "ip-172-31-29-165"
PID    : 33314
I/O    : uncollated
Case   : /home/ubuntu/GA_IWO/2018_04_06_Final/Results/Generation_44/Specie_0/CFD
nProcs : 1
sigFpe : Enabling floating point exception trapping (FOAM_SIGFPE).
fileModificationChecking : Monitoring run-time modified files using timeStampMaster (fileModificationSkew 10)
allowSystemOperations : Allowing user-supplied system call operations

// * * * * * * * * * * * * * * * * * * * * * * * * * * * * * * * * * * * * * //
Create time

Create polyMesh for time = 0

Reading createPatchDict

Adding new patch AMI1 as patch 12 from 
{
    type            cyclicAMI;
    matchTolerance  0.0001;
    neighbourPatch  AMI2;
    transform       noOrdering;
}

Adding new patch AMI2 as patch 13 from 
{
    type            cyclicAMI;
    matchTolerance  0.0001;
    neighbourPatch  AMI1;
    transform       noOrdering;
}


Moving faces from patch AMI to patch 12
Moving faces from patch AMI_slave to patch 13

Doing topology modification to order faces.

Not synchronising points.

Removing patches with no faces in them.

Removing zero-sized patch AMI type wall at position 10
Removing zero-sized patch AMI_slave type wall at position 11
Removing patches.
Writing repatched mesh to 0

End

